STAAD SPACE
START JOB INFORMATION
ENGINEER DATE 14-Jul-19
END JOB INFORMATION
INPUT WIDTH 79
UNIT METER KN
JOINT COORDINATES
1 5.60237 5.61776 1.50115; 2 5.5632 5.61776 1.64035;
3 5.52058 5.61776 1.77854; 4 5.47452 5.61776 1.91562;
5 5.42506 5.61776 2.05151; 6 5.37223 5.61776 2.18612;
7 5.31606 5.61776 2.31937; 8 5.25659 5.61776 2.45119;
9 5.19384 5.61776 2.58147; 10 5.12787 5.61776 2.71016;
11 5.05871 5.61776 2.83716; 12 4.9864 5.61776 2.96239;
13 4.911 5.61776 3.08579; 14 4.83254 5.61776 3.20726;
15 4.75108 5.61776 3.32674; 16 4.66667 5.61776 3.44416;
17 4.57935 5.61776 3.55943; 18 4.48919 5.61776 3.67249;
19 4.39624 5.61776 3.78327; 20 4.30055 5.61776 3.89169;
21 4.20219 5.61776 3.9977; 22 4.10122 5.61776 4.10122;
23 3.9977 5.61776 4.20219; 24 3.89169 5.61776 4.30055;
25 3.78327 5.61776 4.39624; 26 3.67249 5.61776 4.48919;
27 3.55943 5.61776 4.57935; 28 3.44416 5.61776 4.66667;
29 3.32674 5.61776 4.75108; 30 3.20726 5.61776 4.83254;
31 3.08579 5.61776 4.911; 32 2.96239 5.61776 4.9864;
33 2.83716 5.61776 5.05871; 34 2.71016 5.61776 5.12787;
35 2.58147 5.61776 5.19384; 36 2.45119 5.61776 5.25659;
37 2.31937 5.61776 5.31606; 38 2.18612 5.61776 5.37223;
39 2.05151 5.61776 5.42506; 40 1.91562 5.61776 5.47452;
# ... 6536 like lines cut
MEMBER INCIDENCES
7525 7285 7045; 7526 7305 7065; 7527 7325 7085; 7528 7345 7105;
7529 7365 7125; 7530 7385 7145; 7531 7405 7165; 7532 7425 7185;
7533 7445 7205; 7534 7465 7225; 7535 7485 7245; 7536 7505 7265;
7537 7045 6805; 7538 7065 6825; 7539 7085 6845; 7540 7105 6865;
7541 7125 6885; 7542 7145 6905; 7543 7165 6925; 7544 7185 6945;
7545 7205 6965; 7546 7225 6985; 7547 7245 7005; 7548 7265 7025;
7549 6805 6553; 7550 6825 6574; 7551 6845 6595; 7552 6865 6616;
7553 6885 6637; 7554 6905 6658; 7555 6925 6679; 7556 6945 6700;
7557 6965 6721; 7558 6985 6742; 7559 7005 6763; 7560 7025 6784;
7561 6553 6301; 7562 6574 6322; 7563 6595 6343; 7564 6616 6364;
7565 6637 6385; 7566 6658 6406; 7567 6679 6427; 7568 6700 6448;
7569 6721 6469; 7570 6742 6490; 7571 6763 6511; 7572 6784 6532;
7573 7525 7285; 7574 7526 7305; 7575 7527 7325; 7576 7528 7345;
7577 7529 7365; 7578 7530 7385; 7579 7531 7405; 7580 7532 7425;
7581 7533 7445; 7582 7534 7465; 7583 7535 7485; 7584 7536 7505;
7585 7285 7537; 7586 7537 7526; 7587 7525 7537; 7588 7537 7305;
7589 7325 7538; 7590 7538 7528; 7591 7527 7538; 7592 7538 7345;
7593 7365 7539; 7594 7539 7530; 7595 7529 7539; 7596 7539 7385;
7597 7405 7540; 7598 7540 7532; 7599 7531 7540; 7600 7540 7425;
7601 7445 7541; 7602 7541 7534; 7603 7533 7541; 7604 7541 7465;
# ... 128 like lines cut
ELEMENT INCIDENCES SHELL
1 1 2 254 253; 2 2 3 255 254; 3 3 4 256 255; 4 4 5 257 256;
5 5 6 258 257; 6 6 7 259 258; 7 7 8 260 259; 8 8 9 261 260;
9 9 10 262 261; 10 10 11 263 262; 11 11 12 264 263; 12 12 13 265 264;
13 13 14 266 265; 14 14 15 267 266; 15 15 16 268 267; 16 16 17 269 268;
17 17 18 270 269; 18 18 19 271 270; 19 19 20 272 271; 20 20 21 273 272;
21 21 22 274 273; 22 22 23 275 274; 23 23 24 276 275; 24 24 25 277 276;
25 25 26 278 277; 26 26 27 279 278; 27 27 28 280 279; 28 28 29 281 280;
29 29 30 282 281; 30 30 31 283 282; 31 31 32 284 283; 32 32 33 285 284;
33 33 34 286 285; 34 34 35 287 286; 35 35 36 288 287; 36 36 37 289 288;
37 37 38 290 289; 38 38 39 291 290; 39 39 40 292 291; 40 40 41 293 292;
41 41 42 294 293; 42 42 43 295 294; 43 43 44 296 295; 44 44 45 297 296;
45 45 46 298 297; 46 46 47 299 298; 47 47 48 300 299; 48 48 49 301 300;
49 49 50 302 301; 50 50 51 303 302; 51 51 52 304 303; 52 52 53 305 304;
53 53 54 306 305; 54 54 55 307 306; 55 55 56 308 307; 56 56 57 309 308;
57 57 58 310 309; 58 58 59 311 310; 59 59 60 312 311; 60 60 61 313 312;
61 61 62 314 313; 62 62 63 315 314; 63 63 64 316 315; 64 64 65 317 316;
65 65 66 318 317; 66 66 67 319 318; 67 67 68 320 319; 68 68 69 321 320;
69 69 70 322 321; 70 70 71 323 322; 71 71 72 324 323; 72 72 73 325 324;
73 73 74 326 325; 74 74 75 327 326; 75 75 76 328 327; 76 76 77 329 328;
77 77 78 330 329; 78 78 79 331 330; 79 79 80 332 331; 80 80 81 333 332;
# ... 7642 like lines cut
START GROUP DEFINITION
ELEMENT
_LWALL 1 TO 504
_LFLOOR 505 TO 1008
_WLWALL 1009 TO 1512
_FBWALL 1513 TO 1764
_WALL 1765 TO 6300
_FP_PCD1 6301 TO 7524
_FP_PCD2 7609 TO 12144
_FP_PCD3 12349 TO 14568
_CR_TOP 14785 TO 14868
_UFCONE 14869 TO 15120
_CR_VRING 15121 TO 15168
_CR_VAS 15169 TO 15204
_CC_BOT 15205 TO 15960
_CP_INNER 15961 TO 16176
MEMBER
_RB_PCD1 7525 TO 7572
_COL_PCD1 7573 TO 7584
_CBRACE_PCD1 7585 TO 7608
_RB_PCD2 12145 TO 12336
_COL_PCD2 12337 TO 12348
_RB_PCD3 14569 TO 14760
_RBRACE_PCD1 14761 TO 14784
JOINT
_SUP_PCD1 7525 TO 7536
_SUP_PCD2 10495 TO 10506
END GROUP DEFINITION
SUPPORTS
7525 TO 7536 10495 TO 10506 FIXED BUT MX MY MZ
MEMBER RELEASE
7585 TO 7587 7589 TO 7591 7593 TO 7595 7597 TO 7599 7601 TO 7603 7605 -
7606 TO 7607 14761 TO 14763 14765 TO 14767 14769 TO 14771 -
14773 TO 14775 14777 TO 14779 14781 TO 14783 START MY MZ
7585 7586 7588 TO 7590 7592 TO 7594 7596 TO 7598 7600 TO 7602 7604 -
7605 TO 7606 7608 14761 14762 14764 TO 14766 14768 TO 14770 -
14772 TO 14774 14776 TO 14778 14780 TO 14782 14784 END MY MZ
MEMBER PROPERTY EUROPEAN
7525 TO 7572 12145 TO 12336 14569 TO 14760 TABLE ST HE200A
7573 TO 7584 TABLE ST HE200A
7585 TO 7608 TABLE ST 88.9x6.3CHS
12337 TO 12348 TABLE ST HE200A
14761 TO 14784 TABLE ST 88.9x6.3CHS
DEFINE MATERIAL START
ISOTROPIC S275JR
E 2.05e+008
POISSON 0.3
DENSITY 76.8195
ALPHA 1.2e-005
DAMP 0.03
G 7.88462e+007
END DEFINE MATERIAL
CONSTANTS
BETA 345 MEMB 7573 12337
BETA 315 MEMB 7574 12338
BETA 285 MEMB 7575 12339
BETA 255 MEMB 7576 12340
BETA 225 MEMB 7577 12341
BETA 195 MEMB 7578 12342
BETA 165 MEMB 7579 12343
BETA 135 MEMB 7580 12344
BETA 105 MEMB 7581 12345
BETA 75 MEMB 7582 12346
BETA 45 MEMB 7583 12347
BETA 15 MEMB 7584 12348
MATERIAL S275JR MEMB 7525 TO 7608 12145 TO 12348 14569 TO 14784
MEMBER OFFSET
7525 TO 7572 12145 TO 12336 14569 TO 14760 START 0 -0.096184 0
7525 TO 7584 12145 TO 12348 14569 TO 14760 END 0 -0.096184 0
FINISH
