STAAD SPACE
START JOB INFORMATION
ENGINEER DATE 14-Jul-19
END JOB INFORMATION
INPUT WIDTH 79
UNIT METER KN
JOINT COORDINATES
1 5.60237 5.61776 1.50115; 2 5.55025 5.61776 1.68365;
3 5.4922 5.61776 1.86435; 4 5.42825 5.61776 2.04305;
5 5.3585 5.61776 2.21956; 6 5.28301 5.61776 2.3937;
7 5.20186 5.61776 2.56527; 8 5.11514 5.61776 2.7341;
9 5.02295 5.61776 2.9; 10 4.92537 5.61776 3.06279;
11 4.82252 5.61776 3.22231; 12 4.71451 5.61776 3.37837;
13 4.60145 5.61776 3.53082; 14 4.48346 5.61776 3.67948;
15 4.36067 5.61776 3.82421; 16 4.23321 5.61776 3.96483;
17 4.10122 5.61776 4.10122; 18 3.96483 5.61776 4.23321;
19 3.82421 5.61776 4.36067; 20 3.67948 5.61776 4.48346;
21 3.53082 5.61776 4.60145; 22 3.37837 5.61776 4.71451;
23 3.22231 5.61776 4.82252; 24 3.06279 5.61776 4.92537;
25 2.9 5.61776 5.02295; 26 2.7341 5.61776 5.11514;
27 2.56527 5.61776 5.20186; 28 2.3937 5.61776 5.28301;
29 2.21956 5.61776 5.3585; 30 2.04305 5.61776 5.42825;
31 1.86435 5.61776 5.4922; 32 1.68365 5.61776 5.55025;
33 1.50115 5.61776 5.60237; 34 1.31704 5.61776 5.64849;
35 1.13152 5.61776 5.68855; 36 0.944794 5.61776 5.72253;
37 0.757052 5.61776 5.75038; 38 0.568499 5.61776 5.77207;
39 0.379338 5.61776 5.78758; 40 0.189771 5.61776 5.7969;
# ... 4106 like lines cut
MEMBER INCIDENCES
4777 4405 4225; 4778 4420 4240; 4779 4435 4255; 4780 4450 4270;
4781 4465 4285; 4782 4480 4300; 4783 4495 4315; 4784 4510 4330;
4785 4525 4345; 4786 4540 4360; 4787 4555 4375; 4788 4570 4390;
4789 4225 4033; 4790 4240 4049; 4791 4255 4065; 4792 4270 4081;
4793 4285 4097; 4794 4300 4113; 4795 4315 4129; 4796 4330 4145;
4797 4345 4161; 4798 4360 4177; 4799 4375 4193; 4800 4390 4209;
4801 4033 3841; 4802 4049 3857; 4803 4065 3873; 4804 4081 3889;
4805 4097 3905; 4806 4113 3921; 4807 4129 3937; 4808 4145 3953;
4809 4161 3969; 4810 4177 3985; 4811 4193 4001; 4812 4209 4017;
4813 4585 4405; 4814 4586 4420; 4815 4587 4435; 4816 4588 4450;
4817 4589 4465; 4818 4590 4480; 4819 4591 4495; 4820 4592 4510;
4821 4593 4525; 4822 4594 4540; 4823 4595 4555; 4824 4596 4570;
4825 4405 4597; 4826 4597 4586; 4827 4585 4597; 4828 4597 4420;
4829 4435 4598; 4830 4598 4588; 4831 4587 4598; 4832 4598 4450;
4833 4465 4599; 4834 4599 4590; 4835 4589 4599; 4836 4599 4480;
4837 4495 4600; 4838 4600 4592; 4839 4591 4600; 4840 4600 4510;
4841 4525 4601; 4842 4601 4594; 4843 4593 4601; 4844 4601 4540;
4845 4555 4602; 4846 4602 4596; 4847 4595 4602; 4848 4602 4570;
7405 6151 6043; 7406 6160 6052; 7407 6169 6061; 7408 6178 6070;
7409 6187 6079; 7410 6196 6088; 7411 6205 6097; 7412 6214 6106;
# ... 79 like lines cut
ELEMENT INCIDENCES SHELL
1 1 2 194 193; 2 2 3 195 194; 3 3 4 196 195; 4 4 5 197 196;
5 5 6 198 197; 6 6 7 199 198; 7 7 8 200 199; 8 8 9 201 200;
9 9 10 202 201; 10 10 11 203 202; 11 11 12 204 203; 12 12 13 205 204;
13 13 14 206 205; 14 14 15 207 206; 15 15 16 208 207; 16 16 17 209 208;
17 17 18 210 209; 18 18 19 211 210; 19 19 20 212 211; 20 20 21 213 212;
21 21 22 214 213; 22 22 23 215 214; 23 23 24 216 215; 24 24 25 217 216;
25 25 26 218 217; 26 26 27 219 218; 27 27 28 220 219; 28 28 29 221 220;
29 29 30 222 221; 30 30 31 223 222; 31 31 32 224 223; 32 32 33 225 224;
33 33 34 226 225; 34 34 35 227 226; 35 35 36 228 227; 36 36 37 229 228;
37 37 38 230 229; 38 38 39 231 230; 39 39 40 232 231; 40 40 41 233 232;
41 41 42 234 233; 42 42 43 235 234; 43 43 44 236 235; 44 44 45 237 236;
45 45 46 238 237; 46 46 47 239 238; 47 47 48 240 239; 48 48 49 241 240;
49 49 50 242 241; 50 50 51 243 242; 51 51 52 244 243; 52 52 53 245 244;
53 53 54 246 245; 54 54 55 247 246; 55 55 56 248 247; 56 56 57 249 248;
57 57 58 250 249; 58 58 59 251 250; 59 59 60 252 251; 60 60 61 253 252;
61 61 62 254 253; 62 62 63 255 254; 63 63 64 256 255; 64 64 65 257 256;
65 65 66 258 257; 66 66 67 259 258; 67 67 68 260 259; 68 68 69 261 260;
69 69 70 262 261; 70 70 71 263 262; 71 71 72 264 263; 72 72 73 265 264;
73 73 74 266 265; 74 74 75 267 266; 75 75 76 268 267; 76 76 77 269 268;
77 77 78 270 269; 78 78 79 271 270; 79 79 80 272 271; 80 80 81 273 272;
# ... 4640 like lines cut
START GROUP DEFINITION
ELEMENT
_LWALL 1 TO 384
_LFLOOR 385 TO 576
_WLWALL 577 TO 960
_FBWALL 961 TO 1152
_WALL 1153 TO 3648
_DROOP 3650 3652 3654 3656 3658 3660 3662 3664 3666 3668 3670 3672 -
3674 3676 3678 3680 3682 3684 3686 3688 3690 3692 3694 3696 3698 3700 -
3702 3704 3706 3708 3710 3712 3714 3716 3718 3720 3722 3724 3726 3728 -
3730 3732 3734 3736 3738 3740 3742 3744 3746 3748 3750 3752 3754 3756 -
3758 3760 3762 3764 3766 3768 3770 3772 3774 3776 3778 3780 3782 3784 -
3786 3788 3790 3792 3794 3796 3798 3800 3802 3804 3806 3808 3810 3812 -
3814 3816 3818 3820 3822 3824 3826 3828 3830 3832 3834 3836 3838 3840 -
3842 3844 3846 3848 3850 3852 3854 3856 3858 3860 3862 3864 3866 3868 -
3870 3872 3874 3876 3878 3880 3882 3884 3886 3888 3890 3892 3894 3896 -
3898 3900 3902 3904 3906 3908 3910 3912 3914 3916 3918 3920 3922 3924 -
3926 3928 3930 3932 3934 3936 3938 3940 3942 3944 3946 3948 3950 3952 -
3954 3956 3958 3960 3962 3964 3966 3968 3970 3972 3974 3976 3978 3980 -
3982 3984 3986 3988 3990 3992 3994 3996 3998 4000 4002 4004 4006 4008 -
4010 4012 4014 4016 4018 4020 4022 4024 4026 4028 4030 4032
_FP_PCD1 4033 TO 4776
_FP_PCD2 4849 TO 7404
_FP_PCD3 7561 TO 8820
_CR_TOP 8989 TO 9024
_UFCONE 9025 TO 9276
_CR_VRING 9277 TO 9312
_CR_VAS 9313 TO 9348
_CC_BOT 9349 TO 10104
_CP_INNER 10105 TO 10320
MEMBER
_RB_PCD1 4777 TO 4812
_COL_PCD1 4813 TO 4824
_CBRACE_PCD1 4825 TO 4848
_RB_PCD2 7405 TO 7548
_COL_PCD2 7549 TO 7560
_RB_PCD3 8821 TO 8964
_RBRACE_PCD1 8965 TO 8988
JOINT
_SUP_PCD1 4585 TO 4596
_SUP_PCD2 6259 TO 6270
END GROUP DEFINITION
SUPPORTS
4585 TO 4596 6259 TO 6270 FIXED BUT MX MY MZ
MEMBER RELEASE
4825 TO 4827 4829 TO 4831 4833 TO 4835 4837 TO 4839 4841 TO 4843 4845 -
4846 TO 4847 8965 TO 8967 8969 TO 8971 8973 TO 8975 8977 TO 8979 8981 -
8982 TO 8983 8985 TO 8987 START MY MZ
4825 4826 4828 TO 4830 4832 TO 4834 4836 TO 4838 4840 TO 4842 4844 -
4845 TO 4846 4848 8965 8966 8968 TO 8970 8972 TO 8974 8976 TO 8978 -
8980 TO 8982 8984 TO 8986 8988 END MY MZ
MEMBER PROPERTY EUROPEAN
4777 TO 4812 7405 TO 7548 8821 TO 8964 TABLE ST HE200A
4813 TO 4824 TABLE ST HE200A
4825 TO 4848 TABLE ST 88.9x6.3CHS
7549 TO 7560 TABLE ST HE200A
8965 TO 8988 TABLE ST 88.9x6.3CHS
DEFINE MATERIAL START
ISOTROPIC S275JR
E 2.05e+008
POISSON 0.3
DENSITY 76.8195
ALPHA 1.2e-005
DAMP 0.03
G 7.88462e+007
END DEFINE MATERIAL
CONSTANTS
BETA 345 MEMB 4813 7549
BETA 315 MEMB 4814 7550
BETA 285 MEMB 4815 7551
BETA 255 MEMB 4816 7552
BETA 225 MEMB 4817 7553
BETA 195 MEMB 4818 7554
BETA 165 MEMB 4819 7555
BETA 135 MEMB 4820 7556
BETA 105 MEMB 4821 7557
BETA 75 MEMB 4822 7558
BETA 45 MEMB 4823 7559
BETA 15 MEMB 4824 7560
MATERIAL S275JR MEMB 4777 TO 4848 7405 TO 7560 8821 TO 8988
MEMBER OFFSET
4777 TO 4812 7405 TO 7548 8821 TO 8964 START 0 -0.096184 0
4777 TO 4824 7405 TO 7560 8821 TO 8964 END 0 -0.096184 0
FINISH
