STAAD SPACE
START JOB INFORMATION
ENGINEER DATE 14-Jul-19
END JOB INFORMATION
INPUT WIDTH 79
UNIT METER KN
JOINT COORDINATES
1 5.60237 5.61776 1.50115; 2 5.55025 5.61776 1.68365;
3 5.4922 5.61776 1.86435; 4 5.42825 5.61776 2.04305;
5 5.3585 5.61776 2.21956; 6 5.28301 5.61776 2.3937;
7 5.20186 5.61776 2.56527; 8 5.11514 5.61776 2.7341;
9 5.02295 5.61776 2.9; 10 4.92537 5.61776 3.06279;
11 4.82252 5.61776 3.22231; 12 4.71451 5.61776 3.37837;
13 4.60145 5.61776 3.53082; 14 4.48346 5.61776 3.67948;
15 4.36067 5.61776 3.82421; 16 4.23321 5.61776 3.96483;
17 4.10122 5.61776 4.10122; 18 3.96483 5.61776 4.23321;
19 3.82421 5.61776 4.36067; 20 3.67948 5.61776 4.48346;
21 3.53082 5.61776 4.60145; 22 3.37837 5.61776 4.71451;
23 3.22231 5.61776 4.82252; 24 3.06279 5.61776 4.92537;
25 2.9 5.61776 5.02295; 26 2.7341 5.61776 5.11514;
27 2.56527 5.61776 5.20186; 28 2.3937 5.61776 5.28301;
29 2.21956 5.61776 5.3585; 30 2.04305 5.61776 5.42825;
31 1.86435 5.61776 5.4922; 32 1.68365 5.61776 5.55025;
33 1.50115 5.61776 5.60237; 34 1.31704 5.61776 5.64849;
35 1.13152 5.61776 5.68855; 36 0.944794 5.61776 5.72253;
37 0.757052 5.61776 5.75038; 38 0.568499 5.61776 5.77207;
39 0.379338 5.61776 5.78758; 40 0.189771 5.61776 5.7969;
# ... 4010 like lines cut
MEMBER INCIDENCES
4393 4213 4033; 4394 4228 4048; 4395 4243 4063; 4396 4258 4078;
4397 4273 4093; 4398 4288 4108; 4399 4303 4123; 4400 4318 4138;
4401 4333 4153; 4402 4348 4168; 4403 4363 4183; 4404 4378 4198;
4405 4033 3841; 4406 4048 3857; 4407 4063 3873; 4408 4078 3889;
4409 4093 3905; 4410 4108 3921; 4411 4123 3937; 4412 4138 3953;
4413 4153 3969; 4414 4168 3985; 4415 4183 4001; 4416 4198 4017;
4417 3841 3649; 4418 3857 3665; 4419 3873 3681; 4420 3889 3697;
4421 3905 3713; 4422 3921 3729; 4423 3937 3745; 4424 3953 3761;
4425 3969 3777; 4426 3985 3793; 4427 4001 3809; 4428 4017 3825;
4429 4393 4213; 4430 4394 4228; 4431 4395 4243; 4432 4396 4258;
4433 4397 4273; 4434 4398 4288; 4435 4399 4303; 4436 4400 4318;
4437 4401 4333; 4438 4402 4348; 4439 4403 4363; 4440 4404 4378;
4441 4213 4405; 4442 4405 4394; 4443 4393 4405; 4444 4405 4228;
4445 4243 4406; 4446 4406 4396; 4447 4395 4406; 4448 4406 4258;
4449 4273 4407; 4450 4407 4398; 4451 4397 4407; 4452 4407 4288;
4453 4303 4408; 4454 4408 4400; 4455 4399 4408; 4456 4408 4318;
4457 4333 4409; 4458 4409 4402; 4459 4401 4409; 4460 4409 4348;
4461 4363 4410; 4462 4410 4404; 4463 4403 4410; 4464 4410 4378;
7021 5959 5851; 7022 5968 5860; 7023 5977 5869; 7024 5986 5878;
7025 5995 5887; 7026 6004 5896; 7027 6013 5905; 7028 6022 5914;
# ... 79 like lines cut
ELEMENT INCIDENCES SHELL
1 1 2 194 193; 2 2 3 195 194; 3 3 4 196 195; 4 4 5 197 196;
5 5 6 198 197; 6 6 7 199 198; 7 7 8 200 199; 8 8 9 201 200;
9 9 10 202 201; 10 10 11 203 202; 11 11 12 204 203; 12 12 13 205 204;
13 13 14 206 205; 14 14 15 207 206; 15 15 16 208 207; 16 16 17 209 208;
17 17 18 210 209; 18 18 19 211 210; 19 19 20 212 211; 20 20 21 213 212;
21 21 22 214 213; 22 22 23 215 214; 23 23 24 216 215; 24 24 25 217 216;
25 25 26 218 217; 26 26 27 219 218; 27 27 28 220 219; 28 28 29 221 220;
29 29 30 222 221; 30 30 31 223 222; 31 31 32 224 223; 32 32 33 225 224;
33 33 34 226 225; 34 34 35 227 226; 35 35 36 228 227; 36 36 37 229 228;
37 37 38 230 229; 38 38 39 231 230; 39 39 40 232 231; 40 40 41 233 232;
41 41 42 234 233; 42 42 43 235 234; 43 43 44 236 235; 44 44 45 237 236;
45 45 46 238 237; 46 46 47 239 238; 47 47 48 240 239; 48 48 49 241 240;
49 49 50 242 241; 50 50 51 243 242; 51 51 52 244 243; 52 52 53 245 244;
53 53 54 246 245; 54 54 55 247 246; 55 55 56 248 247; 56 56 57 249 248;
57 57 58 250 249; 58 58 59 251 250; 59 59 60 252 251; 60 60 61 253 252;
61 61 62 254 253; 62 62 63 255 254; 63 63 64 256 255; 64 64 65 257 256;
65 65 66 258 257; 66 66 67 259 258; 67 67 68 260 259; 68 68 69 261 260;
69 69 70 262 261; 70 70 71 263 262; 71 71 72 264 263; 72 72 73 265 264;
73 73 74 266 265; 74 74 75 267 266; 75 75 76 268 267; 76 76 77 269 268;
77 77 78 270 269; 78 78 79 271 270; 79 79 80 272 271; 80 80 81 273 272;
# ... 4544 like lines cut
START GROUP DEFINITION
ELEMENT
_LWALL 1 TO 384
_LFLOOR 385 TO 576
_WLWALL 577 TO 960
_FBWALL 961 TO 1152
_WALL 1153 TO 3648
_FP_PCD1 3649 TO 4392
_FP_PCD2 4465 TO 7020
_FP_PCD3 7177 TO 8436
_CR_TOP 8605 TO 8640
_UFCONE 8641 TO 8892
_CR_VRING 8893 TO 8928
_CR_VAS 8929 TO 8964
_CC_BOT 8965 TO 9720
_CP_INNER 9721 TO 9936
MEMBER
_RB_PCD1 4393 TO 4428
_COL_PCD1 4429 TO 4440
_CBRACE_PCD1 4441 TO 4464
_RB_PCD2 7021 TO 7164
_COL_PCD2 7165 TO 7176
_RB_PCD3 8437 TO 8580
_RBRACE_PCD1 8581 TO 8604
JOINT
_SUP_PCD1 4393 TO 4404
_SUP_PCD2 6067 TO 6078
END GROUP DEFINITION
SUPPORTS
4393 TO 4404 6067 TO 6078 FIXED BUT MX MY MZ
MEMBER RELEASE
4441 TO 4443 4445 TO 4447 4449 TO 4451 4453 TO 4455 4457 TO 4459 4461 -
4462 TO 4463 8581 TO 8583 8585 TO 8587 8589 TO 8591 8593 TO 8595 8597 -
8598 TO 8599 8601 TO 8603 START MY MZ
4441 4442 4444 TO 4446 4448 TO 4450 4452 TO 4454 4456 TO 4458 4460 -
4461 TO 4462 4464 8581 8582 8584 TO 8586 8588 TO 8590 8592 TO 8594 -
8596 TO 8598 8600 TO 8602 8604 END MY MZ
MEMBER PROPERTY EUROPEAN
4393 TO 4428 7021 TO 7164 8437 TO 8580 TABLE ST HE200A
4429 TO 4440 TABLE ST HE200A
4441 TO 4464 TABLE ST 88.9x6.3CHS
7165 TO 7176 TABLE ST HE200A
8581 TO 8604 TABLE ST 88.9x6.3CHS
DEFINE MATERIAL START
ISOTROPIC S275JR
E 2.05e+008
POISSON 0.3
DENSITY 76.8195
ALPHA 1.2e-005
DAMP 0.03
G 7.88462e+007
END DEFINE MATERIAL
CONSTANTS
BETA 345 MEMB 4429 7165
BETA 315 MEMB 4430 7166
BETA 285 MEMB 4431 7167
BETA 255 MEMB 4432 7168
BETA 225 MEMB 4433 7169
BETA 195 MEMB 4434 7170
BETA 165 MEMB 4435 7171
BETA 135 MEMB 4436 7172
BETA 105 MEMB 4437 7173
BETA 75 MEMB 4438 7174
BETA 45 MEMB 4439 7175
BETA 15 MEMB 4440 7176
MATERIAL S275JR MEMB 4393 TO 4464 7021 TO 7176 8437 TO 8604
MEMBER OFFSET
4393 TO 4428 7021 TO 7164 8437 TO 8580 START 0 -0.096184 0
4393 TO 4440 7021 TO 7176 8437 TO 8580 END 0 -0.096184 0
FINISH
