STAAD SPACE
START JOB INFORMATION
ENGINEER DATE 14-Jul-19
END JOB INFORMATION
INPUT WIDTH 79
UNIT METER KN
JOINT COORDINATES
1 5.60237 5.61776 1.50115; 2 5.5632 5.61776 1.64035;
3 5.52058 5.61776 1.77854; 4 5.47452 5.61776 1.91562;
5 5.42506 5.61776 2.05151; 6 5.37223 5.61776 2.18612;
7 5.31606 5.61776 2.31937; 8 5.25659 5.61776 2.45119;
9 5.19384 5.61776 2.58147; 10 5.12787 5.61776 2.71016;
11 5.05871 5.61776 2.83716; 12 4.9864 5.61776 2.96239;
13 4.911 5.61776 3.08579; 14 4.83254 5.61776 3.20726;
15 4.75108 5.61776 3.32674; 16 4.66667 5.61776 3.44416;
17 4.57935 5.61776 3.55943; 18 4.48919 5.61776 3.67249;
19 4.39624 5.61776 3.78327; 20 4.30055 5.61776 3.89169;
21 4.20219 5.61776 3.9977; 22 4.10122 5.61776 4.10122;
23 3.9977 5.61776 4.20219; 24 3.89169 5.61776 4.30055;
25 3.78327 5.61776 4.39624; 26 3.67249 5.61776 4.48919;
27 3.55943 5.61776 4.57935; 28 3.44416 5.61776 4.66667;
29 3.32674 5.61776 4.75108; 30 3.20726 5.61776 4.83254;
31 3.08579 5.61776 4.911; 32 2.96239 5.61776 4.9864;
33 2.83716 5.61776 5.05871; 34 2.71016 5.61776 5.12787;
35 2.58147 5.61776 5.19384; 36 2.45119 5.61776 5.25659;
37 2.31937 5.61776 5.31606; 38 2.18612 5.61776 5.37223;
39 2.05151 5.61776 5.42506; 40 1.91562 5.61776 5.47452;
# ... 6560 like lines cut
MEMBER INCIDENCES
7933 7405 7165; 7934 7425 7185; 7935 7445 7205; 7936 7465 7225;
7937 7485 7245; 7938 7505 7265; 7939 7525 7285; 7940 7545 7305;
7941 7565 7325; 7942 7585 7345; 7943 7605 7365; 7944 7625 7385;
7945 7165 6925; 7946 7185 6945; 7947 7205 6965; 7948 7225 6985;
7949 7245 7005; 7950 7265 7025; 7951 7285 7045; 7952 7305 7065;
7953 7325 7085; 7954 7345 7105; 7955 7365 7125; 7956 7385 7145;
7957 6925 6673; 7958 6945 6694; 7959 6965 6715; 7960 6985 6736;
7961 7005 6757; 7962 7025 6778; 7963 7045 6799; 7964 7065 6820;
7965 7085 6841; 7966 7105 6862; 7967 7125 6883; 7968 7145 6904;
7969 6673 6301; 7970 6694 6322; 7971 6715 6343; 7972 6736 6364;
7973 6757 6385; 7974 6778 6406; 7975 6799 6427; 7976 6820 6448;
7977 6841 6469; 7978 6862 6490; 7979 6883 6511; 7980 6904 6532;
7981 7645 7405; 7982 7646 7425; 7983 7647 7445; 7984 7648 7465;
7985 7649 7485; 7986 7650 7505; 7987 7651 7525; 7988 7652 7545;
7989 7653 7565; 7990 7654 7585; 7991 7655 7605; 7992 7656 7625;
7993 7405 7657; 7994 7657 7646; 7995 7645 7657; 7996 7657 7425;
7997 7445 7658; 7998 7658 7648; 7999 7647 7658; 8000 7658 7465;
8001 7485 7659; 8002 7659 7650; 8003 7649 7659; 8004 7659 7505;
8005 7525 7660; 8006 7660 7652; 8007 7651 7660; 8008 7660 7545;
8009 7565 7661; 8010 7661 7654; 8011 7653 7661; 8012 7661 7585;
# ... 128 like lines cut
ELEMENT INCIDENCES SHELL
1 1 2 254 253; 2 2 3 255 254; 3 3 4 256 255; 4 4 5 257 256;
5 5 6 258 257; 6 6 7 259 258; 7 7 8 260 259; 8 8 9 261 260;
9 9 10 262 261; 10 10 11 263 262; 11 11 12 264 263; 12 12 13 265 264;
13 13 14 266 265; 14 14 15 267 266; 15 15 16 268 267; 16 16 17 269 268;
17 17 18 270 269; 18 18 19 271 270; 19 19 20 272 271; 20 20 21 273 272;
21 21 22 274 273; 22 22 23 275 274; 23 23 24 276 275; 24 24 25 277 276;
25 25 26 278 277; 26 26 27 279 278; 27 27 28 280 279; 28 28 29 281 280;
29 29 30 282 281; 30 30 31 283 282; 31 31 32 284 283; 32 32 33 285 284;
33 33 34 286 285; 34 34 35 287 286; 35 35 36 288 287; 36 36 37 289 288;
37 37 38 290 289; 38 38 39 291 290; 39 39 40 292 291; 40 40 41 293 292;
41 41 42 294 293; 42 42 43 295 294; 43 43 44 296 295; 44 44 45 297 296;
45 45 46 298 297; 46 46 47 299 298; 47 47 48 300 299; 48 48 49 301 300;
49 49 50 302 301; 50 50 51 303 302; 51 51 52 304 303; 52 52 53 305 304;
53 53 54 306 305; 54 54 55 307 306; 55 55 56 308 307; 56 56 57 309 308;
57 57 58 310 309; 58 58 59 311 310; 59 59 60 312 311; 60 60 61 313 312;
61 61 62 314 313; 62 62 63 315 314; 63 63 64 316 315; 64 64 65 317 316;
65 65 66 318 317; 66 66 67 319 318; 67 67 68 320 319; 68 68 69 321 320;
69 69 70 322 321; 70 70 71 323 322; 71 71 72 324 323; 72 72 73 325 324;
73 73 74 326 325; 74 74 75 327 326; 75 75 76 328 327; 76 76 77 329 328;
77 77 78 330 329; 78 78 79 331 330; 79 79 80 332 331; 80 80 81 333 332;
# ... 7684 like lines cut
START GROUP DEFINITION
ELEMENT
_LWALL 1 TO 504
_LFLOOR 505 TO 1008
_WLWALL 1009 TO 1512
_FBWALL 1513 TO 1764
_WALL 1765 TO 6048
_DROOP 6050 6052 6054 6056 6058 6060 TO 6062 6064 6065 6067 6068 6070 -
6071 6073 6074 6076 6077 6079 6080 6082 6083 6085 6086 6088 6089 6091 -
6092 TO 6093 6095 6097 6099 6101 6103 6105 6107 6109 6111 6113 6115 -
6116 TO 6117 6119 6120 6122 6123 6125 6126 6128 6129 6131 6132 6134 -
6135 6137 6138 6140 6141 6143 6144 6146 TO 6148 6150 6152 6154 6156 -
6158 6160 6162 6164 6166 6168 6170 TO 6172 6174 6175 6177 6178 6180 -
6181 6183 6184 6186 6187 6189 6190 6192 6193 6195 6196 6198 6199 6201 -
6202 TO 6203 6205 6207 6209 6211 6213 6215 6217 6219 6221 6223 6225 -
6226 TO 6227 6229 6230 6232 6233 6235 6236 6238 6239 6241 6242 6244 -
6245 6247 6248 6250 6251 6253 6254 6256 TO 6258 6260 6262 6264 6266 -
6268 6270 6272 6274 6276 6278 6280 TO 6282 6284 6285 6287 6288 6290 -
6291 6293 6294 6296 6297 6299 6300 6302 6303 6305 6306 6308 6309 6311 -
6312 TO 6313 6315 6317 6319 6321 6323 6325 6327 6329 6331 6333 6335 -
6336 TO 6337 6339 6340 6342 6343 6345 6346 6348 6349 6351 6352 6354 -
6355 6357 6358 6360 6361 6363 6364 6366 TO 6368 6370 6372 6374 6376 -
6378 6380 6382 6384 6386 6388 6390 TO 6392 6394 6395 6397 6398 6400 -
6401 6403 6404 6406 6407 6409 6410 6412 6413 6415 6416 6418 6419 6421 -
6422 TO 6423 6425 6427 6429 6431 6433 6435 6437 6439 6441 6443 6445 -
6446 TO 6447 6449 6450 6452 6453 6455 6456 6458 6459 6461 6462 6464 -
6465 6467 6468 6470 6471 6473 6474 6476 TO 6478 6480 6482 6484 6486 -
6488 6490 6492 6494 6496 6498 6500 TO 6502
_DROOP 6504 6505 6507 6508 6510 6511 6513 6514 6516 6517 6519 6520 -
6522 6523 6525 6526 6528 6529 6531 TO 6533 6535 6537 6539 6541 6543 -
6545 6547 6549 6551 6553 6555 TO 6557 6559 6560 6562 6563 6565 6566 -
6568 6569 6571 6572 6574 6575 6577 6578 6580 6581 6583 6584 -
6586 TO 6588 6590 6592 6594 6596 6598 6600 6602 6604 6606 6608 6610 -
6611 TO 6612 6614 6615 6617 6618 6620 6621 6623 6624 6626 6627 6629 -
6630 6632 6633 6635 6636 6638 6639 6641 TO 6643 6645 6647 6649 6651 -
6653 6655 6657 6659 6661 6663 6665 TO 6667 6669 6670 6672 6673 6675 -
6676 6678 6679 6681 6682 6684 6685 6687 6688 6690 6691 6693 6694 6696 -
6697 TO 6698 6700 6702 6704 6706 6708
_FP_PCD1 6709 TO 7932
_FP_PCD2 8017 TO 12504
_FP_PCD3 12709 TO 14904
_CR_TOP 15121 TO 15204
_UFCONE 15205 TO 15456
_CR_VRING 15457 TO 15504
_CR_VAS 15505 TO 15540
_CC_BOT 15541 TO 16296
_CP_INNER 16297 TO 16512
MEMBER
_RB_PCD1 7933 TO 7980
_COL_PCD1 7981 TO 7992
_CBRACE_PCD1 7993 TO 8016
_RB_PCD2 12505 TO 12696
_COL_PCD2 12697 TO 12708
_RB_PCD3 14905 TO 15096
_RBRACE_PCD1 15097 TO 15120
JOINT
_SUP_PCD1 7645 TO 7656
_SUP_PCD2 10567 TO 10578
END GROUP DEFINITION
SUPPORTS
7645 TO 7656 10567 TO 10578 FIXED BUT MX MY MZ
MEMBER RELEASE
7993 TO 7995 7997 TO 7999 8001 TO 8003 8005 TO 8007 8009 TO 8011 8013 -
8014 TO 8015 15097 TO 15099 15101 TO 15103 15105 TO 15107 -
15109 TO 15111 15113 TO 15115 15117 TO 15119 START MY MZ
7993 7994 7996 TO 7998 8000 TO 8002 8004 TO 8006 8008 TO 8010 8012 -
8013 TO 8014 8016 15097 15098 15100 TO 15102 15104 TO 15106 -
15108 TO 15110 15112 TO 15114 15116 TO 15118 15120 END MY MZ
MEMBER PROPERTY EUROPEAN
7933 TO 7980 12505 TO 12696 14905 TO 15096 TABLE ST HE200A
7981 TO 7992 TABLE ST HE200A
7993 TO 8016 TABLE ST 88.9x6.3CHS
12697 TO 12708 TABLE ST HE200A
15097 TO 15120 TABLE ST 88.9x6.3CHS
DEFINE MATERIAL START
ISOTROPIC S275JR
E 2.05e+008
POISSON 0.3
DENSITY 76.8195
ALPHA 1.2e-005
DAMP 0.03
G 7.88462e+007
END DEFINE MATERIAL
CONSTANTS
BETA 345 MEMB 7981 12697
BETA 315 MEMB 7982 12698
BETA 285 MEMB 7983 12699
BETA 255 MEMB 7984 12700
BETA 225 MEMB 7985 12701
BETA 195 MEMB 7986 12702
BETA 165 MEMB 7987 12703
BETA 135 MEMB 7988 12704
BETA 105 MEMB 7989 12705
BETA 75 MEMB 7990 12706
BETA 45 MEMB 7991 12707
BETA 15 MEMB 7992 12708
MATERIAL S275JR MEMB 7933 TO 8016 12505 TO 12708 14905 TO 15120
MEMBER OFFSET
7933 TO 7980 12505 TO 12696 14905 TO 15096 START 0 -0.096184 0
7933 TO 7992 12505 TO 12708 14905 TO 15096 END 0 -0.096184 0
FINISH
