STAAD SPACE
START JOB INFORMATION
ENGINEER DATE 14-Jul-19
END JOB INFORMATION
INPUT WIDTH 79
UNIT METER KN
JOINT COORDINATES
1 5.60237 5.61776 1.50115; 2 5.57622 5.61776 1.59556;
3 5.54847 5.61776 1.68951; 4 5.51915 5.61776 1.78298;
5 5.48825 5.61776 1.87594; 6 5.45578 5.61776 1.96837;
7 5.42176 5.61776 2.06023; 8 5.38619 5.61776 2.15151;
9 5.34908 5.61776 2.24217; 10 5.31045 5.61776 2.33219;
11 5.2703 5.61776 2.42155; 12 5.22865 5.61776 2.51022;
13 5.18551 5.61776 2.59817; 14 5.14089 5.61776 2.68538;
15 5.0948 5.61776 2.77182; 16 5.04726 5.61776 2.85748;
17 4.99828 5.61776 2.94232; 18 4.94787 5.61776 3.02631;
19 4.89605 5.61776 3.10945; 20 4.84284 5.61776 3.1917;
21 4.78824 5.61776 3.27304; 22 4.73228 5.61776 3.35344;
23 4.67496 5.61776 3.43289; 24 4.61632 5.61776 3.51135;
25 4.55635 5.61776 3.58882; 26 4.49509 5.61776 3.66526;
27 4.43255 5.61776 3.74066; 28 4.36873 5.61776 3.81499;
29 4.30368 5.61776 3.88823; 30 4.23739 5.61776 3.96036;
31 4.1699 5.61776 4.03137; 32 4.10122 5.61776 4.10122;
33 4.03137 5.61776 4.1699; 34 3.96036 5.61776 4.23739;
35 3.88823 5.61776 4.30368; 36 3.81499 5.61776 4.36873;
37 3.74066 5.61776 4.43255; 38 3.66526 5.61776 4.49509;
39 3.58882 5.61776 4.55635; 40 3.51135 5.61776 4.61632;
# ... 13838 like lines cut
MEMBER INCIDENCES
18541 16285 15937; 18542 16314 15966; 18543 16343 15995;
18544 16372 16024; 18545 16401 16053; 18546 16430 16082;
18547 16459 16111; 18548 16488 16140; 18549 16517 16169;
18550 16546 16198; 18551 16575 16227; 18552 16604 16256;
18553 15937 15577; 18554 15966 15607; 18555 15995 15637;
18556 16024 15667; 18557 16053 15697; 18558 16082 15727;
18559 16111 15757; 18560 16140 15787; 18561 16169 15817;
18562 16198 15847; 18563 16227 15877; 18564 16256 15907;
18565 15577 15217; 18566 15607 15247; 18567 15637 15277;
18568 15667 15307; 18569 15697 15337; 18570 15727 15367;
18571 15757 15397; 18572 15787 15427; 18573 15817 15457;
18574 15847 15487; 18575 15877 15517; 18576 15907 15547;
18577 15217 14845; 18578 15247 14876; 18579 15277 14907;
18580 15307 14938; 18581 15337 14969; 18582 15367 15000;
18583 15397 15031; 18584 15427 15062; 18585 15457 15093;
18586 15487 15124; 18587 15517 15155; 18588 15547 15186;
18589 14845 14473; 18590 14876 14504; 18591 14907 14535;
18592 14938 14566; 18593 14969 14597; 18594 15000 14628;
18595 15031 14659; 18596 15062 14690; 18597 15093 14721;
18598 15124 14752; 18599 15155 14783; 18600 15186 14814;
# ... 220 like lines cut
ELEMENT INCIDENCES SHELL
1 1 2 374 373; 2 2 3 375 374; 3 3 4 376 375; 4 4 5 377 376;
5 5 6 378 377; 6 6 7 379 378; 7 7 8 380 379; 8 8 9 381 380;
9 9 10 382 381; 10 10 11 383 382; 11 11 12 384 383; 12 12 13 385 384;
13 13 14 386 385; 14 14 15 387 386; 15 15 16 388 387; 16 16 17 389 388;
17 17 18 390 389; 18 18 19 391 390; 19 19 20 392 391; 20 20 21 393 392;
21 21 22 394 393; 22 22 23 395 394; 23 23 24 396 395; 24 24 25 397 396;
25 25 26 398 397; 26 26 27 399 398; 27 27 28 400 399; 28 28 29 401 400;
29 29 30 402 401; 30 30 31 403 402; 31 31 32 404 403; 32 32 33 405 404;
33 33 34 406 405; 34 34 35 407 406; 35 35 36 408 407; 36 36 37 409 408;
37 37 38 410 409; 38 38 39 411 410; 39 39 40 412 411; 40 40 41 413 412;
41 41 42 414 413; 42 42 43 415 414; 43 43 44 416 415; 44 44 45 417 416;
45 45 46 418 417; 46 46 47 419 418; 47 47 48 420 419; 48 48 49 421 420;
49 49 50 422 421; 50 50 51 423 422; 51 51 52 424 423; 52 52 53 425 424;
53 53 54 426 425; 54 54 55 427 426; 55 55 56 428 427; 56 56 57 429 428;
57 57 58 430 429; 58 58 59 431 430; 59 59 60 432 431; 60 60 61 433 432;
61 61 62 434 433; 62 62 63 435 434; 63 63 64 436 435; 64 64 65 437 436;
65 65 66 438 437; 66 66 67 439 438; 67 67 68 440 439; 68 68 69 441 440;
69 69 70 442 441; 70 70 71 443 442; 71 71 72 444 443; 72 72 73 445 444;
73 73 74 446 445; 74 74 75 447 446; 75 75 76 448 447; 76 76 77 449 448;
77 77 78 450 449; 78 78 79 451 450; 79 79 80 452 451; 80 80 81 453 452;
# ... 17086 like lines cut
START GROUP DEFINITION
ELEMENT
_LWALL 1 TO 1116
_LFLOOR 1117 TO 1860
_WLWALL 1861 TO 3360
_FBWALL 3361 TO 4128
_WALL 4129 TO 14184
_DROOP 14186 14188 14190 14192 14194 TO 14196 14198 14199 14201 14202 -
14204 14205 14207 14208 14210 14211 14213 14214 14216 14217 14219 -
14220 14222 14223 14225 14226 14228 14229 14231 14232 14234 14235 -
14237 14238 14240 14241 14243 14244 14246 14247 14249 14250 14252 -
14253 14255 14256 14258 14259 14261 14262 14264 TO 14266 14268 14270 -
14272 14274 14276 14278 14280 14282 14284 TO 14286 14288 14289 14291 -
14292 14294 14295 14297 14298 14300 14301 14303 14304 14306 14307 -
14309 14310 14312 14313 14315 14316 14318 14319 14321 14322 14324 -
14325 14327 14328 14330 14331 14333 14334 14336 14337 14339 14340 -
14342 14343 14345 14346 14348 14349 14351 14352 14354 TO 14356 14358 -
14360 14362 14364 14366 14368 14370 14372 14374 TO 14376 14378 14379 -
14381 14382 14384 14385 14387 14388 14390 14391 14393 14394 14396 -
14397 14399 14400 14402 14403 14405 14406 14408 14409 14411 14412 -
14414 14415 14417 14418 14420 14421 14423 14424 14426 14427 14429 -
14430 14432 14433 14435 14436 14438 14439 14441 14442 14444 TO 14446 -
14448 14450 14452 14454 14456 14458 14460 14462 14464 TO 14466 14468 -
14469 14471 14472 14474 14475 14477 14478 14480 14481 14483 14484 -
14486 14487 14489 14490 14492 14493 14495 14496 14498 14499 14501 -
14502 14504 14505 14507 14508 14510 14511 14513 14514 14516 14517 -
14519 14520 14522 14523 14525 14526 14528 14529 14531 14532 14534 -
14535 TO 14536 14538 14540 14542 14544 14546 14548 14550 14552 14554 -
14555 TO 14556 14558 14559 14561 14562 14564 14565 14567 14568 14570 -
14571 14573 14574 14576 14577 14579 14580 14582 14583 14585 14586 -
14588 14589 14591 14592 14594 14595 14597 14598 14600 14601 14603 -
14604 14606 14607 14609 14610 14612 14613 14615 14616 14618
_DROOP 14619 14621 14622 14624 TO 14626 14628 14630 14632 14634 14636 -
14638 14640 14642 14644 TO 14646 14648 14649 14651 14652 14654 14655 -
14657 14658 14660 14661 14663 14664 14666 14667 14669 14670 14672 -
14673 14675 14676 14678 14679 14681 14682 14684 14685 14687 14688 -
14690 14691 14693 14694 14696 14697 14699 14700 14702 14703 14705 -
14706 14708 14709 14711 14712 14714 TO 14716 14718 14720 14722 14724 -
14726 14728 14730 14732 14734 TO 14736 14738 14739 14741 14742 14744 -
14745 14747 14748 14750 14751 14753 14754 14756 14757 14759 14760 -
14762 14763 14765 14766 14768 14769 14771 14772 14774 14775 14777 -
14778 14780 14781 14783 14784 14786 14787 14789 14790 14792 14793 -
14795 14796 14798 14799 14801 14802 14804 TO 14806 14808 14810 14812 -
14814 14816 14818 14820 14822 14824 TO 14826 14828 14829 14831 14832 -
14834 14835 14837 14838 14840 14841 14843 14844 14846 14847 14849 -
14850 14852 14853 14855 14856 14858 14859 14861 14862 14864 14865 -
14867 14868 14870 14871 14873 14874 14876 14877 14879 14880 14882 -
14883 14885 14886 14888 14889 14891 14892 14894 TO 14896 14898 14900 -
14902 14904 14906 14908 14910 14912 14914 TO 14916 14918 14919 14921 -
14922 14924 14925 14927 14928 14930 14931 14933 14934 14936 14937 -
14939 14940 14942 14943 14945 14946 14948 14949 14951 14952 14954 -
14955 14957 14958 14960 14961 14963 14964 14966 14967 14969 14970 -
14972 14973 14975 14976 14978 14979 14981 14982 14984 TO 14986 14988 -
14990 14992 14994 14996 14998 15000 15002 15004 TO 15006 15008 15009 -
15011 15012 15014 15015 15017 15018 15020 15021 15023 15024 15026 -
15027 15029 15030 15032 15033 15035 15036 15038 15039 15041 15042 -
15044 15045 15047 15048 15050 15051 15053
_DROOP 15054 15056 15057 15059 15060 15062 15063 15065 15066 15068 -
15069 15071 15072 15074 TO 15076 15078 15080 15082 15084 15086 15088 -
15090 15092 15094 TO 15096 15098 15099 15101 15102 15104 15105 15107 -
15108 15110 15111 15113 15114 15116 15117 15119 15120 15122 15123 -
15125 15126 15128 15129 15131 15132 15134 15135 15137 15138 15140 -
15141 15143 15144 15146 15147 15149 15150 15152 15153 15155 15156 -
15158 15159 15161 15162 15164 TO 15166 15168 15170 15172 15174 15176 -
15178 15180 15182 15184 TO 15186 15188 15189 15191 15192 15194 15195 -
15197 15198 15200 15201 15203 15204 15206 15207 15209 15210 15212 -
15213 15215 15216 15218 15219 15221 15222 15224 15225 15227 15228 -
15230 15231 15233 15234 15236 15237 15239 15240 15242 15243 15245 -
15246 15248 15249 15251 15252 15254 TO 15256 15258 15260 15262 15264
_FP_PCD1 15265 TO 18540
_FP_PCD2 18649 TO 28536
_FP_PCD3 28837 TO 33564
_CR_TOP 33877 TO 34044
_UFCONE 34045 TO 34440
_CR_VRING 34441 TO 34560
_CR_VAS 34561 TO 34692
_CC_BOT 34693 TO 35448
_CP_INNER 35449 TO 35664
MEMBER
_RB_PCD1 18541 TO 18612
_COL_PCD1 18613 TO 18624
_CBRACE_PCD1 18625 TO 18648
_RB_PCD2 28537 TO 28824
_COL_PCD2 28825 TO 28836
_RB_PCD3 33565 TO 33852
_RBRACE_PCD1 33853 TO 33876
JOINT
_SUP_PCD1 16633 TO 16644
_SUP_PCD2 23155 TO 23166
END GROUP DEFINITION
SUPPORTS
16633 TO 16644 23155 TO 23166 FIXED BUT MX MY MZ
MEMBER RELEASE
18625 TO 18627 18629 TO 18631 18633 TO 18635 18637 TO 18639 -
18641 TO 18643 18645 TO 18647 33853 TO 33855 33857 TO 33859 33861 -
33862 TO 33863 33865 TO 33867 33869 TO 33871 33873 TO 33874 -
33875 START MY MZ
18625 18626 18628 TO 18630 18632 TO 18634 18636 TO 18638 -
18640 TO 18642 18644 TO 18646 18648 33853 33854 33856 TO 33858 33860 -
33861 TO 33862 33864 TO 33866 33868 TO 33870 33872 TO 33874 -
33876 END MY MZ
MEMBER PROPERTY EUROPEAN
18541 TO 18612 28537 TO 28824 33565 TO 33852 TABLE ST HE200A
18613 TO 18624 TABLE ST HE200A
18625 TO 18648 TABLE ST 88.9x6.3CHS
28825 TO 28836 TABLE ST HE200A
33853 TO 33876 TABLE ST 88.9x6.3CHS
DEFINE MATERIAL START
ISOTROPIC S275JR
E 2.05e+008
POISSON 0.3
DENSITY 76.8195
ALPHA 1.2e-005
DAMP 0.03
G 7.88462e+007
END DEFINE MATERIAL
CONSTANTS
BETA 345 MEMB 18613 28825
BETA 315 MEMB 18614 28826
BETA 285 MEMB 18615 28827
BETA 255 MEMB 18616 28828
BETA 225 MEMB 18617 28829
BETA 195 MEMB 18618 28830
BETA 165 MEMB 18619 28831
BETA 135 MEMB 18620 28832
BETA 105 MEMB 18621 28833
BETA 75 MEMB 18622 28834
BETA 45 MEMB 18623 28835
BETA 15 MEMB 18624 28836
MATERIAL S275JR MEMB 18541 TO 18648 28537 TO 28836 33565 TO 33876
MEMBER OFFSET
18541 TO 18612 28537 TO 28824 33565 TO 33852 START 0 -0.096184 0
18541 TO 18624 28537 TO 28836 33565 TO 33852 END 0 -0.096184 0
FINISH
