STAAD SPACE
START JOB INFORMATION
ENGINEER DATE 14-Jul-19
END JOB INFORMATION
INPUT WIDTH 79
UNIT METER KN
JOINT COORDINATES
1 5.60237 5.61776 1.50115; 2 5.57622 5.61776 1.59556;
3 5.54847 5.61776 1.68951; 4 5.51915 5.61776 1.78298;
5 5.48825 5.61776 1.87594; 6 5.45578 5.61776 1.96837;
7 5.42176 5.61776 2.06023; 8 5.38619 5.61776 2.15151;
9 5.34908 5.61776 2.24217; 10 5.31045 5.61776 2.33219;
11 5.2703 5.61776 2.42155; 12 5.22865 5.61776 2.51022;
13 5.18551 5.61776 2.59817; 14 5.14089 5.61776 2.68538;
15 5.0948 5.61776 2.77182; 16 5.04726 5.61776 2.85748;
17 4.99828 5.61776 2.94232; 18 4.94787 5.61776 3.02631;
19 4.89605 5.61776 3.10945; 20 4.84284 5.61776 3.1917;
21 4.78824 5.61776 3.27304; 22 4.73228 5.61776 3.35344;
23 4.67496 5.61776 3.43289; 24 4.61632 5.61776 3.51135;
25 4.55635 5.61776 3.58882; 26 4.49509 5.61776 3.66526;
27 4.43255 5.61776 3.74066; 28 4.36873 5.61776 3.81499;
29 4.30368 5.61776 3.88823; 30 4.23739 5.61776 3.96036;
31 4.1699 5.61776 4.03137; 32 4.10122 5.61776 4.10122;
33 4.03137 5.61776 4.1699; 34 3.96036 5.61776 4.23739;
35 3.88823 5.61776 4.30368; 36 3.81499 5.61776 4.36873;
37 3.74066 5.61776 4.43255; 38 3.66526 5.61776 4.49509;
39 3.58882 5.61776 4.55635; 40 3.51135 5.61776 4.61632;
# ... 13586 like lines cut
MEMBER INCIDENCES
17473 15637 15277; 17474 15666 15307; 17475 15695 15337;
17476 15724 15367; 17477 15753 15397; 17478 15782 15427;
17479 15811 15457; 17480 15840 15487; 17481 15869 15517;
17482 15898 15547; 17483 15927 15577; 17484 15956 15607;
17485 15277 14917; 17486 15307 14947; 17487 15337 14977;
17488 15367 15007; 17489 15397 15037; 17490 15427 15067;
17491 15457 15097; 17492 15487 15127; 17493 15517 15157;
17494 15547 15187; 17495 15577 15217; 17496 15607 15247;
17497 14917 14557; 17498 14947 14587; 17499 14977 14617;
17500 15007 14647; 17501 15037 14677; 17502 15067 14707;
17503 15097 14737; 17504 15127 14767; 17505 15157 14797;
17506 15187 14827; 17507 15217 14857; 17508 15247 14887;
17509 14557 14185; 17510 14587 14216; 17511 14617 14247;
17512 14647 14278; 17513 14677 14309; 17514 14707 14340;
17515 14737 14371; 17516 14767 14402; 17517 14797 14433;
17518 14827 14464; 17519 14857 14495; 17520 14887 14526;
17521 14185 13813; 17522 14216 13844; 17523 14247 13875;
17524 14278 13906; 17525 14309 13937; 17526 14340 13968;
17527 14371 13999; 17528 14402 14030; 17529 14433 14061;
17530 14464 14092; 17531 14495 14123; 17532 14526 14154;
# ... 220 like lines cut
ELEMENT INCIDENCES SHELL
1 1 2 374 373; 2 2 3 375 374; 3 3 4 376 375; 4 4 5 377 376;
5 5 6 378 377; 6 6 7 379 378; 7 7 8 380 379; 8 8 9 381 380;
9 9 10 382 381; 10 10 11 383 382; 11 11 12 384 383; 12 12 13 385 384;
13 13 14 386 385; 14 14 15 387 386; 15 15 16 388 387; 16 16 17 389 388;
17 17 18 390 389; 18 18 19 391 390; 19 19 20 392 391; 20 20 21 393 392;
21 21 22 394 393; 22 22 23 395 394; 23 23 24 396 395; 24 24 25 397 396;
25 25 26 398 397; 26 26 27 399 398; 27 27 28 400 399; 28 28 29 401 400;
29 29 30 402 401; 30 30 31 403 402; 31 31 32 404 403; 32 32 33 405 404;
33 33 34 406 405; 34 34 35 407 406; 35 35 36 408 407; 36 36 37 409 408;
37 37 38 410 409; 38 38 39 411 410; 39 39 40 412 411; 40 40 41 413 412;
41 41 42 414 413; 42 42 43 415 414; 43 43 44 416 415; 44 44 45 417 416;
45 45 46 418 417; 46 46 47 419 418; 47 47 48 420 419; 48 48 49 421 420;
49 49 50 422 421; 50 50 51 423 422; 51 51 52 424 423; 52 52 53 425 424;
53 53 54 426 425; 54 54 55 427 426; 55 55 56 428 427; 56 56 57 429 428;
57 57 58 430 429; 58 58 59 431 430; 59 59 60 432 431; 60 60 61 433 432;
61 61 62 434 433; 62 62 63 435 434; 63 63 64 436 435; 64 64 65 437 436;
65 65 66 438 437; 66 66 67 439 438; 67 67 68 440 439; 68 68 69 441 440;
69 69 70 442 441; 70 70 71 443 442; 71 71 72 444 443; 72 72 73 445 444;
73 73 74 446 445; 74 74 75 447 446; 75 75 76 448 447; 76 76 77 449 448;
77 77 78 450 449; 78 78 79 451 450; 79 79 80 452 451; 80 80 81 453 452;
# ... 16816 like lines cut
START GROUP DEFINITION
ELEMENT
_LWALL 1 TO 1116
_LFLOOR 1117 TO 1860
_WLWALL 1861 TO 3360
_FBWALL 3361 TO 4128
_WALL 4129 TO 14184
_FP_PCD1 14185 TO 17472
_FP_PCD2 17581 TO 27564
_FP_PCD3 27865 TO 32640
_CR_TOP 32953 TO 33120
_UFCONE 33121 TO 33516
_CR_VRING 33517 TO 33636
_CR_VAS 33637 TO 33768
_CC_BOT 33769 TO 34524
_CP_INNER 34525 TO 34740
MEMBER
_RB_PCD1 17473 TO 17544
_COL_PCD1 17545 TO 17556
_CBRACE_PCD1 17557 TO 17580
_RB_PCD2 27565 TO 27852
_COL_PCD2 27853 TO 27864
_RB_PCD3 32641 TO 32928
_RBRACE_PCD1 32929 TO 32952
JOINT
_SUP_PCD1 15985 TO 15996
_SUP_PCD2 22603 TO 22614
END GROUP DEFINITION
SUPPORTS
15985 TO 15996 22603 TO 22614 FIXED BUT MX MY MZ
MEMBER RELEASE
17557 TO 17559 17561 TO 17563 17565 TO 17567 17569 TO 17571 -
17573 TO 17575 17577 TO 17579 32929 TO 32931 32933 TO 32935 32937 -
32938 TO 32939 32941 TO 32943 32945 TO 32947 32949 TO 32950 -
32951 START MY MZ
17557 17558 17560 TO 17562 17564 TO 17566 17568 TO 17570 -
17572 TO 17574 17576 TO 17578 17580 32929 32930 32932 TO 32934 32936 -
32937 TO 32938 32940 TO 32942 32944 TO 32946 32948 TO 32950 -
32952 END MY MZ
MEMBER PROPERTY EUROPEAN
17473 TO 17544 27565 TO 27852 32641 TO 32928 TABLE ST HE200A
17545 TO 17556 TABLE ST HE200A
17557 TO 17580 TABLE ST 88.9x6.3CHS
27853 TO 27864 TABLE ST HE200A
32929 TO 32952 TABLE ST 88.9x6.3CHS
DEFINE MATERIAL START
ISOTROPIC S275JR
E 2.05e+008
POISSON 0.3
DENSITY 76.8195
ALPHA 1.2e-005
DAMP 0.03
G 7.88462e+007
END DEFINE MATERIAL
CONSTANTS
BETA 345 MEMB 17545 27853
BETA 315 MEMB 17546 27854
BETA 285 MEMB 17547 27855
BETA 255 MEMB 17548 27856
BETA 225 MEMB 17549 27857
BETA 195 MEMB 17550 27858
BETA 165 MEMB 17551 27859
BETA 135 MEMB 17552 27860
BETA 105 MEMB 17553 27861
BETA 75 MEMB 17554 27862
BETA 45 MEMB 17555 27863
BETA 15 MEMB 17556 27864
MATERIAL S275JR MEMB 17473 TO 17580 27565 TO 27864 32641 TO 32952
MEMBER OFFSET
17473 TO 17544 27565 TO 27852 32641 TO 32928 START 0 -0.096184 0
17473 TO 17556 27565 TO 27864 32641 TO 32928 END 0 -0.096184 0
FINISH
